Version 4
SHEET 1 880 680
WIRE 224 -16 0 -16
WIRE 0 0 0 -16
WIRE 0 0 -64 0
WIRE 80 0 0 0
WIRE -64 16 -64 0
WIRE 80 16 80 0
WIRE 224 48 224 -16
WIRE -64 96 -64 80
WIRE -32 96 -64 96
WIRE 80 96 80 80
WIRE 80 96 48 96
WIRE -64 128 -64 96
WIRE 80 128 80 96
WIRE 224 144 224 128
WIRE 256 144 224 144
WIRE 224 176 224 144
WIRE 0 192 -64 192
WIRE 80 192 0 192
WIRE 0 240 0 192
FLAG 224 256 0
FLAG 0 240 0
SYMBOL res 208 160 R0
SYMATTR InstName R1
SYMATTR Value 1k
SYMBOL res 208 32 R0
SYMATTR InstName R2
SYMATTR Value 68k
SYMBOL bv -48 96 R270
WINDOW 3 157 63 VBottom 2
WINDOW 0 32 56 VTop 2
SYMATTR Value V=180*sin(60*time)+4*sin(180*time)+1.5*sin(60*5*time)
SYMATTR InstName B1
SYMBOL diode -48 80 R180
WINDOW 0 24 64 Left 2
WINDOW 3 33 30 Left 2
SYMATTR InstName D1
SYMBOL diode 96 80 R180
WINDOW 0 24 64 Left 2
WINDOW 3 38 30 Left 2
SYMATTR InstName D2
SYMBOL diode -48 192 R180
WINDOW 0 36 25 Left 2
WINDOW 3 24 0 Left 2
SYMATTR InstName D3
SYMBOL diode 96 192 R180
WINDOW 0 33 27 Left 2
WINDOW 3 24 0 Left 2
SYMATTR InstName D4
TEXT -64 280 Left 2 !.tran 0.2
